         808

Zn          17.64257   9.24632   5.93158
Zn          27.50371  27.35371   5.93158
Zn           6.89168  26.84003   5.93158
Zn          18.88262  11.50333   7.79064
Zn          24.92907  27.29913   7.79064
Zn           8.22628  24.63760   7.79064
O           26.69555   7.40990  24.64533
O           43.10361   4.00674  24.64533
O           37.84681  19.91812  24.64533
O           25.82436   5.50927  25.53731
O           45.18521   4.20258  25.53731
O           36.63640  21.62292  25.53731
O           32.88842  10.41175   6.79353
O           37.40750   7.86901   6.79353
O           37.35004  13.05401   6.79353
O           34.09327  10.23196   4.94048
O           36.96078   9.00233   4.94048
O           36.59192  12.10048   4.94048
O           20.45818  11.06669   6.71244
O           24.51942  28.88192   6.71244
O            7.06036  23.49144   6.71244
O           19.53509   9.52564   5.42702
O           26.31556  28.85303   5.42702
O            6.18732  25.06139   5.42702
O           17.30150   7.43559   6.34604
O           29.24239  27.96371   6.34604
O            5.49407  28.04076   6.34604
O           18.48225  13.37185   7.37618
O           23.51106  26.01813   7.37618
O           10.04466  24.05007   7.37618
C           26.55467   8.73264   0.98209
C           42.02853   3.22337   0.98209
C           39.06277  19.37876   0.98209
C           27.75766   8.99269   1.58576
C           41.20182   4.13516   1.58576
C           38.68649  18.20691   1.58576
C           27.87073   9.43896   2.91924
C           40.75881   4.00995   2.91924
C           39.01643  17.88586   2.91924
C           26.69555   9.67011   3.59799
C           41.14621   2.87664   3.59799
C           39.80421  18.78802   3.59799
C           25.47588   9.41327   3.03336
C           41.97848   1.94879   3.03336
C           40.19161  19.97270   3.03336
C           25.42213   8.91564   1.74493
C           42.43632   2.15106   1.74493
C           39.78752  20.26807   1.74493
C           29.18308   9.63801   3.53492
C           39.93025   5.04695   3.53492
C           38.53264  16.64981   3.53492
C           30.25446   8.97022   3.18954
C           39.97288   6.30869   3.18954
C           37.41862  16.05586   3.18954
C           31.43335   9.22064   3.82024
C           39.16657   7.20443   3.82024
C           37.04605  14.90970   3.82024
C           31.59461  10.00722   4.80533
C           38.40474   6.95080   4.80533
C           37.64661  14.37675   4.80533
C           30.54733  10.72959   5.09064
C           38.30279   5.68264   5.09064
C           38.79585  14.92254   5.09064
C           29.36102  10.50485   4.45994
C           39.09057   4.76764   4.45994
C           39.19437  16.06228   4.45994
C           24.21914   9.67011   3.70611
C           42.38442   0.73200   3.70611
C           41.04241  20.93265   3.70611
C           24.02266  10.50485   4.67618
C           41.75975   0.14447   4.67618
C           41.86356  20.68544   4.67618
C           22.81411  10.71033   5.37896
C           23.65008  31.10040   5.37896
C            5.57378  21.62934   5.37896
C           21.82985  10.09711   5.09665
C           24.67327  30.55461   5.09665
C            5.53485  22.78834   5.09665
C           21.87063   9.32659   4.07552
C           25.32017  30.97519   4.07552
C            4.84716  23.13829   4.07552
C           23.05693   9.12111   3.39076
C           43.44097   0.00000   3.39076
C           41.14806  22.21365   3.39076
C           26.52687   8.27995  29.58280
C           42.43446   3.42564  29.58280
C           38.68463  19.62918  29.58280
C           25.60563   7.29432  29.24342
C           43.74867   3.12064  29.24342
C           38.29167  20.91981  29.24342
C           27.22938   8.21253  27.34232
C           42.14159   4.06774  27.34232
C           38.27498  19.05449  27.34232
C           26.38600   7.19480  27.01796
C           43.44468   3.84621  27.01796
C           37.81529  20.29376  27.01796
C           27.34060   8.58496  28.60071
C           41.76346   3.97785  28.60071
C           38.54191  18.77197  28.60071
C           26.31741   6.70359  25.62441
C           43.90437   4.03242  25.62441
C           37.42418  20.59876  25.62441
C           32.99222  10.16775   5.46005
C           37.56691   8.08090   5.46005
C           37.08683  13.08612   5.46005
C           20.63984  10.28975   5.76639
C           25.10145  29.42771   5.76639
C            6.29668  23.72260   5.76639
C           16.77508   3.36463   8.55949
C           33.03115  29.54329   8.55949
C            2.23173  30.53214   8.55949
C           16.78435   4.78690   8.55949
C           31.79480  28.84019   8.55949
C            3.45882  29.81298   8.55949
C           18.44332  17.52949   7.04581
C           19.92991  23.90560   7.04581
C           13.66474  22.00497   7.04581
C           18.41366  16.19391   7.05182
C           21.10138  24.54771   7.05182
C           12.52292  22.69844   7.05182
C           25.58339   6.81916  27.87991
C           44.17129   3.33895  27.87991
C           37.89129  21.17665  27.87991
Zn          34.08585  10.68143   8.32223
Zn          36.57523   8.77117   8.32223
Zn          36.98488  11.88217   8.32223
Zn          17.04941   9.24632   9.03702
Zn          27.80029  26.84003   9.03702
Zn           7.18826  27.35371   9.03702
Zn          15.80936  11.50333   7.17796
Zn          26.46570  24.63760   7.17796
Zn           9.76291  27.29913   7.17796
O           28.66036   4.00674  20.35657
O           45.06843   7.40990  20.35657
O           33.91717  19.91812  20.35657
O           26.57877   4.20258  19.46458
O           45.93962   5.50927  19.46458
O           35.12758  21.62292  19.46458
O           35.34259   7.40027   9.00699
O           38.78843  11.50012   9.00699
O           33.51494  12.43438   9.00699
O           33.47972   9.18211   9.29230
O           38.17674   8.99590   9.29230
O           35.98950  13.15675   9.29230
O           14.23379  11.06669   8.25615
O           27.63161  23.49144   8.25615
O           10.17256  28.88192   8.25615
O           15.15689   9.52564   9.54158
O           28.50466  25.06139   9.54158
O            8.37642  28.85303   9.54158
O           17.39047   7.43559   8.62256
O           29.19791  28.04076   8.62256
O            5.44958  27.96371   8.62256
O           16.20973  13.37185   7.59242
O           24.64732  24.05007   7.59242
O           11.18091  26.01813   7.59242
C           29.73545   3.22337  13.98651
C           45.20931   8.73264  13.98651
C           32.70121  19.37876  13.98651
C           30.56216   4.13516  13.38284
C           44.00632   8.99269  13.38284
C           33.07749  18.20691  13.38284
C           31.00517   4.00995  12.04936
C           43.89325   9.43896  12.04936
C           32.74755  17.88586  12.04936
C           30.61776   2.87663  11.37061
C           45.06843   9.67011  11.37061
C           31.95977  18.78802  11.37061
C           29.78550   1.94879  11.93523
C           46.28810   9.41327  11.93523
C           31.57237  19.97270  11.93523
C           29.32766   2.15106  13.22366
C           46.34185   8.91564  13.22366
C           31.97645  20.26807  13.22366
C           31.83373   5.04695  11.43368
C           42.58090   9.63801  11.43368
C           33.23134  16.64981  11.43368
C           31.79109   6.30869  11.77906
C           41.50952   8.97022  11.77906
C           34.34535  16.05586  11.77906
C           32.59741   7.20443  11.14836
C           40.33063   9.22064  11.14836
C           34.71793  14.90970  11.14836
C           33.35924   6.95080  10.16327
C           40.16936  10.00722  10.16327
C           34.11736  14.37675  10.16327
C           33.46119   5.68264   9.87795
C           41.21665  10.72959   9.87795
C           32.96813  14.92254   9.87795
C           32.67341   4.76764  10.50865
C           42.40295  10.50485  10.50865
C           32.56960  16.06228  10.50865
C           29.37956   0.73200  11.26249
C           47.54484   9.67011  11.26249
C           30.72157  20.93265  11.26249
C           30.00422   0.14447  10.29241
C           47.74132  10.50485  10.29241
C           29.90042  20.68544  10.29241
C           11.87787  10.71033   9.58963
C           29.11820  21.62934   9.58963
C           11.04190  31.10040   9.58963
C           12.86213  10.09711   9.87195
C           29.15713  22.78834   9.87195
C           10.01871  30.55461   9.87195
C           12.82135   9.32659  10.89308
C           29.84481  23.13829  10.89308
C            9.37180  30.97519  10.89308
C           28.32301   0.00000  11.57784
C           48.70704   9.12111  11.57784
C           30.61591  22.21365  11.57784
C           29.32951   3.42563  15.41910
C           45.23711   8.27996  15.41910
C           33.07935  19.62918  15.41910
C           28.01531   3.12064  15.75847
C           46.15835   7.29432  15.75847
C           33.47231  20.91981  15.75847
C           29.62238   4.06774  17.65958
C           44.53459   8.21253  17.65958
C           33.48899  19.05449  17.65958
C           28.31930   3.84621  17.98394
C           45.37798   7.19480  17.98394
C           33.94868  20.29376  17.98394
C           30.00052   3.97785  16.40118
C           44.42338   8.58495  16.40118
C           33.22207  18.77197  16.40118
C           27.85961   4.03242  19.37749
C           45.44656   6.70359  19.37749
C           34.33979  20.59876  19.37749
C           34.19706   8.08090   9.50854
C           38.77175  10.16775   9.50854
C           34.67715  13.08612   9.50854
C           14.05214  10.28975   9.20220
C           28.39530  23.72260   9.20220
C            9.59053  29.42771   9.20220
C           17.91690   3.36463   6.40911
C           32.46024  30.53214   6.40911
C            1.66083  29.54329   6.40911
C           17.90763   4.78690   6.40911
C           31.23316  29.81298   6.40911
C            2.89718  28.84019   6.40911
C           16.24866  17.52949   7.92279
C           21.02724  22.00497   7.92279
C           14.76207  23.90560   7.92279
C           16.27832  16.19391   7.91678
C           22.16906  22.69844   7.91678
C           13.59059  24.54771   7.91678
C           27.59269   3.33895  17.12198
C           46.18059   6.81916  17.12198
C           33.87269  21.17665  17.12198
Zn          18.44888  19.70944  23.33888
Zn          18.03924  22.82044  23.33888
Zn          15.54985  20.91018  23.33888
Zn          25.72426   4.23790  24.05367
Zn          46.33629   4.75158  24.05367
Zn          35.58541  22.34529  24.05367
Zn          28.29891   4.29248  22.19461
Zn          45.00170   6.95401  22.19461
Zn          34.34536  20.08828  22.19461
O           15.38117  11.67348   5.33992
O           26.53243  24.18171   5.33992
O           10.12436  27.58487   5.33992
O           16.59157   9.96869   4.44793
O           27.40362  26.08234   4.44793
O            8.04277  27.38903   4.44793
O           14.97894  19.15723  24.02364
O           20.25243  20.09149  24.02364
O           16.80659  24.19134  24.02364
O           17.45350  18.43486  24.30895
O           19.64075  22.59571  24.30895
O           14.94372  22.40949  24.30895
O           28.70856   2.70969  23.27280
O           46.16761   8.10016  23.27280
O           32.76979  20.52492  23.27280
O           26.91242   2.73858  24.55823
O           47.04066   6.53022  24.55823
O           33.69289  22.06597  24.55823
O           23.98558   3.62790  23.63921
O           47.73391   3.55085  23.63921
O           35.92647  24.15602  23.63921
O           29.71692   5.57348  22.60907
O           43.18332   7.54153  22.60907
O           34.74573  18.21976  22.60907
C           14.16521  12.21285  29.00316
C           26.67330  22.85897  29.00316
C           11.19945  28.36824  29.00316
C           14.54149  13.38470  28.39949
C           25.47032  22.59892  28.39949
C           12.02616  27.45645  28.39949
C           14.21155  13.70575  27.06601
C           25.35725  22.15265  27.06601
C           12.46917  27.58166  27.06601
C           13.42377  12.80359  26.38726
C           26.53243  21.92150  26.38726
C           12.08176  28.71498  26.38726
C           13.03637  11.61891  26.95188
C           27.75210  22.17834  26.95188
C           11.24950  29.64282  26.95188
C           13.44045  11.32354  28.24031
C           27.80585  22.67597  28.24031
C           10.79166  29.44055  28.24031
C           14.69534  14.94180  26.45033
C           24.04490  21.95360  26.45033
C           13.29773  26.54466  26.45033
C           15.80936  15.53575  26.79571
C           22.97352  22.62139  26.79571
C           13.25509  25.28292  26.79571
C           16.18193  16.68191  26.16501
C           21.79463  22.37097  26.16501
C           14.06141  24.38718  26.16501
C           15.58136  17.21486  25.17992
C           21.63336  21.58439  25.17992
C           14.82324  24.64081  25.17992
C           14.43213  16.66907  24.89460
C           22.68065  20.86202  24.89460
C           14.92519  25.90897  24.89460
C           14.03361  15.52933  25.52530
C           23.86695  21.08676  25.52530
C           14.13741  26.82397  25.52530
C           12.18557  10.65896  26.27914
C           29.00884  21.92150  26.27914
C           10.84356  30.85961  26.27914
C           11.36442  10.90617  25.30906
C           29.20532  21.08676  25.30906
C           11.46822  31.44714  25.30906
C           29.57789   0.49121  24.60628
C           47.65420   9.96227  24.60628
C           30.41387  20.88128  24.60628
C           28.55471   1.03700  24.88859
C           47.69313   8.80327  24.88859
C           31.39813  21.49450  24.88859
C           27.90780   0.61642  25.90973
C           48.38081   8.45332  25.90973
C           31.35735  22.26502  25.90973
C           12.07991   9.37796  26.59449
C           30.17105  22.47049  26.59449
C            9.78701  31.59161  26.59449
C           14.54335  11.96243   0.40245
C           26.70111  23.31165   0.40245
C           10.79351  28.16597   0.40245
C           14.93631  10.67180   0.74182
C           27.62235  24.29729   0.74182
C            9.47931  28.47098   0.74182
C           14.95299  12.53712   2.64293
C           25.99860  23.37907   2.64293
C           11.08638  27.52387   2.64293
C           15.41268  11.29785   2.96729
C           26.84198  24.39681   2.96729
C            9.78330  27.74540   2.96729
C           14.68607  12.81964   1.38454
C           25.88738  23.00665   1.38454
C           11.46452  27.61376   1.38454
C           15.80379  10.99285   4.36083
C           26.91057  24.88803   4.36083
C            9.32361  27.55918   4.36083
C           16.14115  18.50549  24.52519
C           20.23575  21.42386  24.52519
C           15.66107  23.51071  24.52519
C           28.12653   2.16390  24.21885
C           46.93130   7.86901  24.21885
C           32.58814  21.30186  24.21885
C           20.19683   2.04832  21.42576
C           50.99624   1.05947  21.42576
C           36.45290  28.22697  21.42576
C           21.43318   2.75142  21.42576
C           49.76916   1.77863  21.42576
C           36.44363  26.80471  21.42576
C           33.29807   7.68601  22.93943
C           39.56324   9.58664  22.93943
C           34.78466  14.06212  22.93943
C           32.12659   7.04390  22.93343
C           40.70506   8.89316  22.93343
C           34.81432  15.39770  22.93343
C           15.33669  10.41496   2.10533
C           27.64459  24.77245   2.10533
C            9.05669  28.25266   2.10533
Zn          25.42769   4.75158  20.94823
Zn          46.03972   4.23790  20.94823
Zn          36.17857  22.34529  20.94823
Zn          26.76227   6.95401  22.80729
Zn          43.46506   4.29248  22.80729
Zn          37.41862  20.08828  22.80729
O           19.31080  11.67348   9.62867
O           24.56761  27.58487   9.62867
O            8.15955  24.18171   9.62867
O           18.10040   9.96869  10.52066
O           26.64921  27.38902  10.52066
O            7.28836  26.08234  10.52066
O           18.81404  18.53759  21.81018
O           18.87150  23.72260  21.81018
O           14.35242  21.17986  21.81018
O           18.05592  19.49113  19.95713
O           18.42478  22.58928  19.95713
O           15.55727  21.35965  19.95713
O           25.59636   8.10017  21.72909
O           43.05542   2.70969  21.72909
O           38.99419  20.52492  21.72909
O           24.72332   6.53022  20.44367
O           44.85156   2.73858  20.44367
O           38.07109  22.06597  20.44367
O           24.03007   3.55085  21.36269
O           47.77839   3.62790  21.36269
O           35.83750  24.15602  21.36269
O           28.58066   7.54153  22.39283
O           42.04706   5.57348  22.39283
O           37.01825  18.21976  22.39283
C           20.52677  12.21285  15.99874
C           23.49253  28.36824  15.99874
C            8.01867  22.85897  15.99874
C           20.15049  13.38470  16.60241
C           22.66582  27.45645  16.60241
C            9.22166  22.59892  16.60241
C           20.48043  13.70575  17.93589
C           22.22281  27.58166  17.93589
C            9.33473  22.15265  17.93589
C           21.26821  12.80359  18.61464
C           22.61021  28.71498  18.61464
C            8.15955  21.92150  18.61464
C           21.65561  11.61891  18.05001
C           23.44248  29.64282  18.05001
C            6.93988  22.17834  18.05001
C           21.25152  11.32354  16.76159
C           23.90032  29.44055  16.76159
C            6.88612  22.67597  16.76159
C           19.99664  14.94180  18.55157
C           21.39425  26.54466  18.55157
C           10.64708  21.95360  18.55157
C           18.88262  15.53575  18.20619
C           21.43689  25.28292  18.20619
C           11.71846  22.62139  18.20619
C           18.51005  16.68191  18.83689
C           20.63057  24.38718  18.83689
C           12.89735  22.37097  18.83689
C           19.11062  17.21486  19.82198
C           19.86874  24.64081  19.82198
C           13.05861  21.58439  19.82198
C           20.25985  16.66907  20.10729
C           19.76679  25.90897  20.10729
C           12.01133  20.86202  20.10729
C           20.65837  15.52933  19.47659
C           20.55457  26.82397  19.47659
C           10.82502  21.08676  19.47659
C           22.50641  10.65896  18.72276
C           23.84841  30.85961  18.72276
C            5.68314  21.92150  18.72276
C           23.32756  10.90617  19.69283
C           23.22375  31.44714  19.69283
C            5.48666  21.08676  19.69283
C           24.10977   9.96227  20.39561
C           42.18608   0.49121  20.39561
C           41.35011  20.88128  20.39561
C           24.07085   8.80327  20.11330
C           43.20927   1.03700  20.11330
C           40.36584  21.49450  20.11330
C           23.38316   8.45332  19.09217
C           43.85618   0.61642  19.09217
C           40.40663  22.26502  19.09217
C           22.61207   9.37796  18.40741
C           24.90497  31.59161  18.40741
C            4.52093  22.47049  18.40741
C           20.14863  11.96243  14.56615
C           23.89847  28.16597  14.56615
C            7.99087  23.31165  14.56615
C           19.75567  10.67180  14.22677
C           25.21267  28.47098  14.22677
C            7.06963  24.29729  14.22677
C           19.73899  12.53712  12.32566
C           23.60560  27.52387  12.32566
C            8.69338  23.37907  12.32566
C           19.27929  11.29785  12.00131
C           24.90868  27.74540  12.00131
C            7.85000  24.39681  12.00131
C           20.00590  12.81964  13.58406
C           23.22746  27.61377  13.58406
C            8.80460  23.00665  13.58406
C           18.88818  10.99285  10.60776
C           25.36837  27.55918  10.60776
C            7.78141  24.88803  10.60776
C           18.55083  18.50549  20.47670
C           19.03091  23.51071  20.47670
C           14.45623  21.42386  20.47670
C           24.83268   7.86901  20.78304
C           43.63745   2.16390  20.78304
C           39.17584  21.30186  20.78304
C           20.76773   1.05947  23.57614
C           51.56715   2.04832  23.57614
C           35.31108  28.22697  23.57614
C           21.99482   1.77863  23.57614
C           50.33080   2.75142  23.57614
C           35.32035  26.80471  23.57614
C           32.20074   9.58664  22.06246
C           38.46591   7.68601  22.06246
C           36.97932  14.06212  22.06246
C           31.05892   8.89317  22.06847
C           39.63738   7.04390  22.06847
C           36.94966  15.39770  22.06847
C           19.35529  10.41496  12.86326
C           25.63529  28.25266  12.86326
C            7.04739  24.77245  12.86326
Zn          35.88199  10.44492   5.69431
Zn          17.34599  21.14669  20.71096
O           17.35402  10.43101   7.48430
O           26.62202  26.51148   7.48430
O            8.06192  26.49757   7.48430
C           17.34599   1.13332   7.48430
C           34.67808  31.15337   7.48430
C            0.01390  31.15337   7.48430
C           17.34599   2.65511   7.48430
C           33.36017  30.39248   7.48430
C            1.33181  30.39248   7.48430
C           17.34599   5.44506   7.48430
C           30.94400  28.99750   7.48430
C            3.74798  28.99750   7.48430
C           17.34599   6.83522   7.48430
C           29.74009  28.30242   7.48430
C            4.95189  28.30242   7.48430
C           17.34599  19.77365   7.48430
C           18.53507  21.83321   7.48430
C           16.15690  21.83321   7.48430
C           17.34599  18.22297   7.48430
C           19.87801  22.60855   7.48430
C           14.81397  22.60855   7.48430
C           17.34599  15.47796   7.48430
C           22.25525  23.98105   7.48430
C           12.43673  23.98105   7.48430
C           17.34599  13.96901   7.48430
C           23.56204  24.73553   7.48430
C           11.12994  24.73553   7.48430
O           26.59792   5.09404  22.50095
O           45.15802   5.08013  22.50095
O           35.89002  21.16060  22.50095
C           18.54990   0.43824  22.50095
C           53.21407   0.43824  22.50095
C           35.88199  30.45829  22.50095
C           19.86781   1.19913  22.50095
C           51.89616   1.19913  22.50095
C           35.88199  28.93650  22.50095
C           22.28398   2.59411  22.50095
C           49.48000   2.59411  22.50095
C           35.88199  26.14655  22.50095
C           23.48789   3.28919  22.50095
C           48.27608   3.28919  22.50095
C           35.88199  24.75639  22.50095
C           34.69290   9.75840  22.50095
C           37.07107   9.75840  22.50095
C           35.88199  11.81796  22.50095
C           33.34997   8.98306  22.50095
C           38.41401   8.98306  22.50095
C           35.88199  13.36864  22.50095
C           30.97273   7.61056  22.50095
C           40.79125   7.61056  22.50095
C           35.88199  16.11365  22.50095
C           29.66594   6.85609  22.50095
C           42.09804   6.85609  22.50095
C           35.88199  17.62260  22.50095
O           35.88199  10.44492   7.48430
O           17.34599  21.14669  22.50095
C           18.53600   0.43021   7.48430
C           53.22798   0.43021   7.48430
C           35.88199  30.47434   7.48430
C           17.34599   1.11726  22.50095
C           34.69198  31.16140  22.50095
C            0.00000  31.16140  22.50095
C           16.13003  20.44465   7.48430
C           18.56195  20.44465   7.48430
C           17.34599  22.55076   7.48430
C           35.88199   9.04085  22.50095
C           37.09795  11.14696  22.50095
C           34.66603  11.14696  22.50095
H           28.72895   8.85014   1.00611
H           40.83963   5.04759   1.00611
H           38.07739  17.43703   1.00611
H           26.72261  10.08620   4.65907
H           40.77234   2.69203   4.65907
H           40.15101  18.55654   4.65907
H           24.39838   8.65398   1.31726
H           43.17479   1.39530   1.31726
H           40.07279  21.28549   1.31726
H           30.19551   8.18492   2.36512
H           40.68244   6.65029   2.36512
H           36.76801  16.49955   2.36512
H           32.38758   8.70375   3.47125
H           39.13710   8.28927   3.47125
H           36.12129  14.34176   3.47125
H           30.62073  11.55598   5.87271
H           37.55041   5.33301   5.87271
H           39.47482  14.44578   5.87271
H           28.49076  11.15370   4.80833
H           38.96379   3.68954   4.80833
H           40.19142  16.49152   4.80833
H           24.87642  11.16622   5.04079
H           40.76011   0.55317   5.04079
H           42.00943  19.61537   5.04079
H           22.77036  11.46994   6.22800
H           23.01411  30.68271   6.22800
H            6.25349  21.28742   6.22800
H           20.92362   8.80038   3.72022
H           26.24939  30.41816   3.72022
H            4.86496  24.22152   3.72022
H           22.98204   8.41993   2.49517
H           44.08565   0.28574   2.49517
H           40.57827  22.62909   2.49517
H           24.89403   6.88305   0.00000
H           44.46063   2.71001   0.00000
H           38.29130  21.74170   0.00000
H           27.83199   8.73489  26.52781
H           41.38792   4.32844  26.52781
H           38.42606  18.27144  26.52781
H           28.25442   9.23669  28.79923
H           40.74213   4.44337  28.79923
H           38.64941  17.65470  28.79923
H           16.30519   2.79862   9.43046
H           33.75628  29.41937   9.43046
H            1.97649  31.22208   9.43046
H           16.33374   5.35998   9.43586
H           31.52380  28.16341   9.43586
H            4.18042  29.91668   9.43586
H           19.36530  18.09262   6.68211
H           18.98123  24.42250   6.68211
H           13.69143  20.92495   6.68211
H           19.31470  15.60221   6.68121
H           21.16329  25.62388   6.68121
H           11.55998  22.21398   6.68121
H           24.79802   6.05987  27.55375
H           45.22154   3.03845  27.55375
H           37.62641  22.23645  27.55375
H           30.92435   5.04760  13.96248
H           43.03503   8.85014  13.96248
H           33.68658  17.43703  13.96248
H           30.99163   2.69203  10.30953
H           45.04137  10.08620  10.30953
H           31.61296  18.55654  10.30953
H           28.58919   1.39530  13.65134
H           47.36559   8.65398  13.65134
H           31.69118  21.28549  13.65134
H           31.08153   6.65029  12.60347
H           41.56846   8.18492  12.60347
H           34.99597  16.49955  12.60347
H           32.62688   8.28927  11.49735
H           39.37640   8.70375  11.49735
H           35.64269  14.34176  11.49735
H           34.21356   5.33301   9.09588
H           41.14325  11.55598   9.09588
H           32.28916  14.44578   9.09588
H           32.80019   3.68954  10.16026
H           43.27322  11.15370  10.16026
H           31.57255  16.49152  10.16026
H           31.00387   0.55317   9.92781
H           46.88755  11.16622   9.92781
H           29.75454  19.61537   9.92781
H           11.92161  11.46994   8.74059
H           28.43849  21.28741   8.74059
H           11.67787  30.68271   8.74059
H           13.76836   8.80038  11.24837
H           29.82702  24.22152  11.24837
H            8.44259  30.41816  11.24837
H           27.67833   0.28574  12.47343
H           48.78193   8.41993  12.47343
H           31.18571  22.62909  12.47343
H           27.30334   2.71001  14.96860
H           46.86994   6.88305  14.96860
H           33.47268  21.74170  14.96860
H           30.37606   4.32844  18.47408
H           43.93199   8.73489  18.47408
H           33.33792  18.27144  18.47408
H           31.02185   4.44337  16.20266
H           43.50955   9.23669  16.20266
H           33.11456  17.65470  16.20266
H           18.38678   2.79862   5.53814
H           32.71548  31.22208   5.53814
H            0.93570  29.41937   5.53814
H           18.35824   5.35998   5.53273
H           30.51155  29.91668   5.53273
H            3.16817  28.16341   5.53273
H           15.32668  18.09262   8.28649
H           21.00055  20.92495   8.28649
H           15.71074  24.42250   8.28649
H           15.37728  15.60221   8.28739
H           23.13200  22.21397   8.28739
H           13.52869  25.62388   8.28739
H           26.54244   3.03845  17.44815
H           46.96596   6.05987  17.44815
H           34.13756  22.23645  17.44815
H           15.15058  14.15458  28.97913
H           24.49903  22.74146  28.97913
H           12.38835  26.54401  28.97913
H           13.07696  13.03507  25.32618
H           26.50537  21.50541  25.32618
H           12.45564  28.89958  25.32618
H           13.15518  10.30612  28.66799
H           28.82960  22.93763  28.66799
H           10.05319  30.19631  28.66799
H           16.45997  15.09206  27.62012
H           23.03246  23.40669  27.62012
H           12.54554  24.94132  27.62012
H           17.10669  17.24985  26.51400
H           20.84040  22.88787  26.51400
H           14.09088  23.30234  26.51400
H           13.75316  17.14583  24.11254
H           22.60725  20.03563  24.11254
H           15.67756  26.25860  24.11254
H           13.03655  15.10008  25.17692
H           24.73722  20.43791  25.17692
H           14.26419  27.90207  25.17692
H           11.21854  11.97624  24.94446
H           28.35156  20.42539  24.94446
H           12.46787  31.03843  24.94446
H           30.21386   0.90890  23.75724
H           46.97449  10.30419  23.75724
H           30.45761  20.12167  23.75724
H           26.97859   1.17345  26.26502
H           48.36302   7.37009  26.26502
H           32.30435  22.79123  26.26502
H           12.64971   8.96251  27.49008
H           30.24593  23.17168  27.49008
H            9.14233  31.30587  27.49008
H           14.93668   9.84990  29.98525
H           28.33394  24.70856  29.98525
H            8.76734  28.88160  29.98525
H           14.80192  13.32016   3.45743
H           25.39599  22.85672   3.45743
H           11.84006  27.26317   3.45743
H           14.57856  13.93691   1.18602
H           24.97355  22.35492   1.18602
H           12.48585  27.14824   1.18602
H           19.47170   2.17224  20.55479
H           51.25148   0.36953  20.55479
H           36.92279  28.79299  20.55479
H           21.70417   3.42820  20.54939
H           49.04755   1.67493  20.54939
H           36.89424  26.23163  20.54939
H           34.24674   7.16911  23.30314
H           39.53655  10.66666  23.30314
H           33.86268  13.49899  23.30314
H           32.06469   5.96773  23.30404
H           41.66800   9.37764  23.30404
H           33.91328  15.98940  23.30404
H           15.60157   9.35516   2.43150
H           28.42996  25.53174   2.43150
H            8.00644  28.55316   2.43150
H           19.54139  14.15458  16.02277
H           22.30363  26.54401  16.02277
H           10.19295  22.74146  16.02277
H           21.61501  13.03507  19.67571
H           22.23634  28.89958  19.67571
H            8.18661  21.50541  19.67571
H           21.53679  10.30612  16.33391
H           24.63879  30.19631  16.33391
H            5.86238  22.93763  16.33391
H           18.23201  15.09206  17.38177
H           22.14644  24.94132  17.38177
H           11.65952  23.40669  17.38177
H           17.58529  17.24985  18.48790
H           20.60110  23.30234  18.48790
H           13.85158  22.88787  18.48790
H           20.93882  17.14583  20.88936
H           19.01441  26.25860  20.88936
H           12.08473  20.03563  20.88936
H           21.65542  15.10008  19.82498
H           20.42778  27.90207  19.82498
H            9.95476  20.43791  19.82498
H           23.47343  11.97624  20.05744
H           22.22411  31.03843  20.05744
H            6.34042  20.42539  20.05744
H           24.78949  10.30419  21.24465
H           41.55011   0.90890  21.24465
H           41.30636  20.12167  21.24465
H           23.40096   7.37009  18.73688
H           44.78538   1.17345  18.73688
H           39.45962  22.79123  18.73688
H           22.04227   8.96251  17.51182
H           25.54965  31.30587  17.51182
H            4.44605  23.17168  17.51182
H           19.75530   9.84990  15.01665
H           25.92464  28.88160  15.01665
H            6.35803  24.70856  15.01665
H           19.89006  13.32016  11.51116
H           22.85192  27.26317  11.51116
H            9.29599  22.85672  11.51116
H           20.11341  13.93691  13.78258
H           22.20613  27.14824  13.78258
H            9.71842  22.35492  13.78258
H           20.51249   0.36953  24.44711
H           52.29228   2.17224  24.44711
H           34.84119  28.79299  24.44711
H           22.71642   1.67493  24.45251
H           50.05980   3.42820  24.45251
H           34.86974  26.23163  24.45251
H           32.22743  10.66666  21.69876
H           37.51723   7.16911  21.69876
H           37.90130  13.49899  21.69876
H           30.09598   9.37763  21.69786
H           39.69929   5.96773  21.69786
H           37.85070  15.98940  21.69786
H           19.09041   9.35516  12.53710
H           26.68554  28.55316  12.53710
H            6.26202  25.53174  12.53710
H           19.52916   0.99013   7.48430
H           52.24649   1.01035   7.48430
H           35.87031  29.33429   7.48430
H           17.35767   2.25732  22.50095
H           33.69882  30.60148  22.50095
H            0.98148  30.58126  22.50095
H           15.15411  19.85552   7.48430
H           19.56011  19.89405   7.48430
H           17.32375  23.69050   7.48430
H           33.66786  11.69756  22.50095
H           35.90423   7.90111  22.50095
H           38.07387  11.73609  22.50095
